L6/1726537/Linhas.dss
! ==========================================================
! LINHAS — geradas de SSDMT
! Barras = PAC_1 / PAC_2 da BDGD (preservados)
! ==========================================================
New Line.244341712 Bus1=node_427533803.2 Bus2=node_427533783.2 LineCode=CND_907_1F Length=133.92 Units=m
New Line.245861256 Bus1=node_435733223.1 Bus2=node_435733224.1 LineCode=CND_902_1F Length=34.32 Units=m
New Line.246023699 Bus1=node_436562634.1.2.3 Bus2=node_436562635.1.2.3 LineCode=CND_11_3F Length=84.93 Units=m
New Line.245860772 Bus1=node_435730700.2 Bus2=node_435730796.2 LineCode=CND_907_1F Length=258.43 Units=m
New Line.1857283841 Bus1=node_2178071405.2 Bus2=node_434308623.2 LineCode=CND_907_1F Length=358.69 Units=m
New Line.1390015035 Bus1=node_436562720.1.2.3 Bus2=node_1684948427.1.2.3 LineCode=CND_11_3F Length=4.73 Units=m
New Line.246024576 Bus1=node_436734486.1.2.3 Bus2=node_436734492.1.2.3 LineCode=CND_11_3F Length=235.35 Units=m
New Line.2165911920 Bus1=node_2474216160.2 Bus2=node_2474216207.2 LineCode=CND_902_1F Length=77.32 Units=m
New Line.246023974 Bus1=node_436403062.3 Bus2=node_425483884.3 LineCode=CND_907_1F Length=219.29 Units=m
New Line.245861042 Bus1=node_435563146.3 Bus2=node_435732150.3 LineCode=CND_907_1F Length=113.40 Units=m
New Line.245545253 Bus1=node_433675999.3 Bus2=node_433676000.3 LineCode=CND_907_1F Length=171.45 Units=m
New Line.246021505 Bus1=node_436074599.1.2.3 Bus2=node_436075019.1.2.3 LineCode=CND_11_3F Length=46.40 Units=m
New Line.244168949 Bus1=100_1047512758.2 Bus2=node_427352719.2 LineCode=CND_907_1F Length=34.06 Units=m
New Line.245859348 Bus1=node_433676250.1.2.3 Bus2=node_435414500.1.2.3 LineCode=CND_11_3F Length=185.42 Units=m
New Line.244342513 Bus1=node_427679274.3 Bus2=node_427679503.3 LineCode=CND_907_1F Length=368.09 Units=m
New Line.243691843 Bus1=node_424838072.1.2.3 Bus2=node_424838083.1.2.3 LineCode=CND_20_3F Length=37.05 Units=m
New Line.243691696 Bus1=node_424837347.1.2.3 Bus2=node_424133853.1.2.3 LineCode=CND_78_3F Length=551.59 Units=m
New Line.243824444 Bus1=node_424167163.1.2.3 Bus2=node_425484000.1.2.3 LineCode=CND_19_3F Length=40.23 Units=m
New Line.245860139 Bus1=node_435564454.1.2.3 Bus2=node_435564455.1.2.3 LineCode=CND_19_3F Length=37.74 Units=m
New Line.244342114 Bus1=node_427535817.3 Bus2=node_427535818.3 LineCode=CND_907_1F Length=114.03 Units=m
New Line.245860568 Bus1=node_435729721.3 Bus2=node_435729725.3 LineCode=CND_907_1F Length=77.88 Units=m
New Line.1628001401 Bus1=node_433998558.1 Bus2=node_1948196393.1 LineCode=CND_907_1F Length=39.14 Units=m
New Line.245546472 Bus1=node_433995655.2 Bus2=node_433995839.2 LineCode=CND_907_1F Length=160.05 Units=m
New Line.245547939 Bus1=node_434152178.2 Bus2=node_434151827.2 LineCode=CND_907_1F Length=80.05 Units=m
New Line.2201495596 Bus1=node_2507048675.1.2.3 Bus2=node_2507048685.1.2.3 LineCode=CND_64_3F Length=101.62 Units=m
New Line.245859822 Bus1=node_435562865.2 Bus2=node_435562866.2 LineCode=CND_907_1F Length=40.39 Units=m
New Line.245545568 Bus1=node_433828379.3 Bus2=node_433828314.3 LineCode=CND_907_1F Length=306.67 Units=m
New Line.245860360 Bus1=node_427354062.3 Bus2=node_435565560.3 LineCode=CND_907_1F Length=172.98 Units=m
New Line.2591493412 Bus1=node_435732320.2 Bus2=node_2744604572.2 LineCode=CND_907_1F Length=3.89 Units=m
New Line.245544666 Bus1=node_433673579.1.2.3 Bus2=node_433673580.1.2.3 LineCode=CND_11_3F Length=77.33 Units=m
New Line.243692672 Bus1=node_424945277.1.2.3 Bus2=node_424945312.1.2.3 LineCode=CND_20_3F Length=26.41 Units=m
New Line.553767151 Bus1=node_822777687.1 Bus2=node_822777736.1 LineCode=CND_910_1F Length=352.00 Units=m
New Line.243587620 Bus1=node_424132145.1.2.3 Bus2=node_424132146.1.2.3 LineCode=CND_50_3F Length=18.08 Units=m
New Line.245544813 Bus1=node_433674314.2 Bus2=node_433674315.2 LineCode=CND_907_1F Length=30.14 Units=m
New Line.496927572 Bus1=node_425180176.1 Bus2=node_767179290.1 LineCode=CND_907_1F Length=22.67 Units=m
New Line.246020609 Bus1=node_435732964.1.2.3 Bus2=node_435733213.1.2.3 LineCode=CND_11_3F Length=97.92 Units=m
New Line.989685508 Bus1=node_875224685.1 Bus2=node_1251821428.1 LineCode=CND_923_1F Length=54.30 Units=m
New Line.245545516 Bus1=node_433828114.2 Bus2=node_433828120.2 LineCode=CND_907_1F Length=144.81 Units=m
New Line.245546191 Bus1=node_433994664.1.2.3 Bus2=node_425067322.1.2.3 LineCode=CND_11_3F Length=168.96 Units=m
New Line.508401060 Bus1=node_778536594.2 Bus2=node_778536683.2 LineCode=CND_923_1F Length=3.93 Units=m
New Line.243587669 Bus1=node_424132390.3 Bus2=node_424132305.3 LineCode=CND_909_1F Length=36.62 Units=m
New Line.246024549 Bus1=node_436734356.1 Bus2=node_436734357.1 LineCode=CND_902_1F Length=22.90 Units=m
New Line.245860045 Bus1=node_435562656.2 Bus2=node_435563879.2 LineCode=CND_907_1F Length=129.06 Units=m
New Line.245860068 Bus1=node_427354466.3 Bus2=node_435564100.3 LineCode=CND_907_1F Length=64.75 Units=m
New Line.349564824 Bus1=100_1049123124.1.2.3 Bus2=node_424166910.1.2.3 LineCode=CND_50_3F Length=9.73 Units=m
New Line.245859852 Bus1=node_435415690.1 Bus2=node_435563016.1 LineCode=CND_907_1F Length=72.82 Units=m
New Line.246024141 Bus1=node_436564850.2 Bus2=node_436564851.2 LineCode=CND_902_1F Length=50.91 Units=m
New Line.245544737 Bus1=node_426361293.2 Bus2=node_433673935.2 LineCode=CND_907_1F Length=173.99 Units=m
New Line.246022778 Bus1=node_427535738.1 Bus2=node_436235980.1 LineCode=CND_902_1F Length=62.21 Units=m
New Line.245859587 Bus1=node_435415694.2 Bus2=node_435415695.2 LineCode=CND_907_1F Length=127.22 Units=m
New Line.244169073 Bus1=node_427353342.1.2.3 Bus2=node_427352609.1.2.3 LineCode=CND_11_3F Length=62.40 Units=m
New Line.243692652 Bus1=node_424945202.1.2.3 Bus2=node_424945212.1.2.3 LineCode=CND_78_3F Length=122.73 Units=m
New Line.246020542 Bus1=node_435905969.1.2.3 Bus2=node_435906783.1.2.3 LineCode=CND_11_3F Length=400.33 Units=m
New Line.244860356 Bus1=node_430840157.2 Bus2=node_430840158.2 LineCode=CND_926_1F Length=66.93 Units=m
New Line.1618984008 Bus1=node_435565180.1 Bus2=node_1973213280.1 LineCode=CND_902_1F Length=16.48 Units=m
New Line.247322684 Bus1=node_442529738.1.2.3 Bus2=node_442529737.1.2.3 LineCode=CND_13_3F Length=142.36 Units=m
New Line.245546002 Bus1=node_433830557.2 Bus2=node_433830558.2 LineCode=CND_907_1F Length=112.50 Units=m
New Line.244169283 Bus1=node_427353368.3 Bus2=node_427354397.3 LineCode=CND_907_1F Length=119.72 Units=m
New Line.244342163 Bus1=node_768205242.1 Bus2=node_427536067.1 LineCode=CND_907_1F Length=105.92 Units=m
New Line.246020767 Bus1=node_435908034.3 Bus2=node_435908149.3 LineCode=CND_907_1F Length=133.66 Units=m
New Line.245545118 Bus1=node_433675839.1.2.3 Bus2=node_433675840.1.2.3 LineCode=CND_13_3F Length=99.81 Units=m
New Line.245545861 Bus1=node_433829640.1 Bus2=node_433828659.1 LineCode=CND_907_1F Length=393.90 Units=m
New Line.245860618 Bus1=node_2530703708.1 Bus2=node_435730026.1 LineCode=CND_907_1F Length=152.83 Units=m
New Line.245861285 Bus1=node_435733368.2 Bus2=node_435733369.2 LineCode=CND_907_1F Length=63.28 Units=m
New Line.552406024 Bus1=node_821828777.1 Bus2=node_821828791.1 LineCode=CND_907_1F Length=165.40 Units=m
New Line.246020717 Bus1=node_427532324.2 Bus2=node_435907899.2 LineCode=CND_907_1F Length=195.94 Units=m
New Line.246023326 Bus1=node_436401807.3 Bus2=node_436401892.3 LineCode=CND_907_1F Length=71.64 Units=m
New Line.245859100 Bus1=node_435413259.1.2.3 Bus2=node_433829189.1.2.3 LineCode=CND_11_3F Length=78.63 Units=m
New Line.245545611 Bus1=node_426361302.2 Bus2=node_433828595.2 LineCode=CND_907_1F Length=201.94 Units=m
New Line.246020908 Bus1=node_435908759.1.2.3 Bus2=node_435905973.1.2.3 LineCode=CND_11_3F Length=153.82 Units=m
New Line.245859427 Bus1=node_435414884.1.2.3 Bus2=node_433676334.1.2.3 LineCode=CND_11_3F Length=106.77 Units=m
New Line.247759053 Bus1=node_444934674.1.2.3 Bus2=node_444934599.1.2.3 LineCode=CND_28_3F Length=36.05 Units=m
New Line.246021802 Bus1=node_436076503.1 Bus2=node_436076504.1 LineCode=CND_907_1F Length=93.23 Units=m
New Line.246020684 Bus1=node_435905879.2 Bus2=node_435907734.2 LineCode=CND_907_1F Length=251.46 Units=m
New Line.1963749263 Bus1=node_426360947.3 Bus2=node_2281724300.3 LineCode=CND_907_1F Length=44.83 Units=m
New Line.245711355 Bus1=node_434309443.1.2.3 Bus2=node_434309533.1.2.3 LineCode=CND_11_3F Length=179.41 Units=m
New Line.892267588 Bus1=node_1156786515.1 Bus2=node_435907889.1 LineCode=CND_907_1F Length=36.66 Units=m
New Line.247136627 Bus1=node_442264924.1.2.3 Bus2=node_442264920.1.2.3 LineCode=CND_4_3F Length=20.00 Units=m
New Line.245547242 Bus1=node_433831248.2 Bus2=node_433994704.2 LineCode=CND_907_1F Length=259.73 Units=m
New Line.245711425 Bus1=node_434309882.1.2.3 Bus2=node_434309877.1.2.3 LineCode=CND_11_3F Length=87.21 Units=m
New Line.245547208 Bus1=node_434149933.1 Bus2=node_434150058.1 LineCode=CND_907_1F Length=72.78 Units=m
New Line.246021740 Bus1=node_436076104.3 Bus2=node_425328421.3 LineCode=CND_907_1F Length=111.61 Units=m
New Line.245544843 Bus1=node_433674459.3 Bus2=node_433674465.3 LineCode=CND_907_1F Length=77.08 Units=m
New Line.246024568 Bus1=node_435565734.1 Bus2=node_436734396.1 LineCode=CND_907_1F Length=67.18 Units=m
New Line.243691634 Bus1=node_424837025.1.2.3 Bus2=node_424837026.1.2.3 LineCode=CND_20_3F Length=22.50 Units=m
New Line.246020506 Bus1=node_435906843.3 Bus2=node_435905943.3 LineCode=CND_907_1F Length=137.57 Units=m
New Line.2076191962 Bus1=node_2419312655.3 Bus2=node_1398208773.3 LineCode=CND_915_1F Length=57.05 Units=m
New Line.1391335106 Bus1=node_1689875777.1.2.3 Bus2=node_1689875788.1.2.3 LineCode=CND_78_3F Length=75.19 Units=m
New Line.1162490514 Bus1=node_1433885537.1.2.3 Bus2=node_1433885548.1.2.3 LineCode=CND_4_3F Length=40.85 Units=m
New Line.2538334477 Bus1=node_427536241.1.2.3 Bus2=node_2965099358.1.2.3 LineCode=CND_471_3F Length=3.94 Units=m
New Line.245545676 Bus1=node_433828285.3 Bus2=node_433674054.3 LineCode=CND_907_1F Length=89.83 Units=m
New Line.992111732 Bus1=100_992111764.3 Bus2=node_1254513994.3 LineCode=CND_907_1F Length=3.19 Units=m
New Line.243587605 Bus1=node_424132070.1.2.3 Bus2=node_424132060.1.2.3 LineCode=CND_4_3F Length=38.37 Units=m
New Line.246024186 Bus1=node_425328946.1 Bus2=node_436565076.1 LineCode=CND_902_1F Length=41.65 Units=m
New Line.245546993 Bus1=node_433997833.3 Bus2=node_433998693.3 LineCode=CND_907_1F Length=101.64 Units=m
New Line.245859351 Bus1=node_435413185.3 Bus2=node_435414515.3 LineCode=CND_907_1F Length=98.00 Units=m
New Line.245545149 Bus1=node_433675994.2 Bus2=node_433675995.2 LineCode=CND_907_1F Length=91.36 Units=m
New Line.245546567 Bus1=node_433996549.1 Bus2=node_433996289.1 LineCode=CND_907_1F Length=49.15 Units=m
New Line.245544807 Bus1=node_1628508193.2 Bus2=node_433674285.2 LineCode=CND_907_1F Length=198.27 Units=m
New Line.245547043 Bus1=node_433998693.3 Bus2=node_434149233.3 LineCode=CND_907_1F Length=178.84 Units=m
New Line.243691601 Bus1=node_424836860.1.2.3 Bus2=node_424836840.1.2.3 LineCode=CND_78_3F Length=459.56 Units=m
New Line.245546769 Bus1=node_426170174.2 Bus2=node_433997573.2 LineCode=CND_907_1F Length=276.14 Units=m
New Line.246021897 Bus1=node_436076978.2 Bus2=node_436076973.2 LineCode=CND_907_1F Length=23.36 Units=m
New Line.245861317 Bus1=node_427355102.2 Bus2=node_435733529.2 LineCode=CND_907_1F Length=300.61 Units=m
New Line.246020681 Bus1=node_435732914.3 Bus2=node_435732744.3 LineCode=CND_907_1F Length=36.60 Units=m
New Line.246020967 Bus1=node_430482066.1.2.3 Bus2=node_435909149.1.2.3 LineCode=CND_19_3F Length=31.53 Units=m
New Line.243587990 Bus1=node_424133625.1.2.3 Bus2=node_424133589.1.2.3 LineCode=CND_50_3F Length=28.76 Units=m
New Line.246022118 Bus1=node_436231768.2 Bus2=node_436232382.2 LineCode=CND_907_1F Length=90.79 Units=m
New Line.246020514 Bus1=node_435906759.1.2.3 Bus2=node_425328006.1.2.3 LineCode=CND_11_3F Length=168.79 Units=m
New Line.246023322 Bus1=node_436232662.2 Bus2=node_436401872.2 LineCode=CND_907_1F Length=58.51 Units=m
New Line.247135281 Bus1=node_441923222.1.2.3 Bus2=node_441923227.1.2.3 LineCode=CND_4_3F Length=32.88 Units=m
New Line.246021883 Bus1=node_436076609.1 Bus2=node_436076909.1 LineCode=CND_907_1F Length=130.87 Units=m
New Line.245545277 Bus1=node_433675740.2 Bus2=node_433674259.2 LineCode=CND_907_1F Length=171.56 Units=m
New Line.245861110 Bus1=node_424837548.1.2.3 Bus2=node_435732490.1.2.3 LineCode=CND_11_3F Length=88.70 Units=m
New Line.2451294310 Bus1=node_435732365.2 Bus2=node_2615595636.2 LineCode=CND_996_1F Length=56.41 Units=m
New Line.243992167 Bus1=node_426169815.1.2.3 Bus2=node_426361353.1.2.3 LineCode=CND_11_3F Length=256.54 Units=m
New Line.245861284 Bus1=node_435731885.1.2.3 Bus2=node_435733364.1.2.3 LineCode=CND_19_3F Length=15.82 Units=m
New Line.243823929 Bus1=node_425326856.1.2.3 Bus2=node_425326857.1.2.3 LineCode=CND_19_3F Length=31.07 Units=m
New Line.243587726 Bus1=node_424132331.1.2.3 Bus2=node_424132580.1.2.3 LineCode=CND_3_3F Length=17.98 Units=m
New Line.245861077 Bus1=node_435732324.1 Bus2=node_435732325.1 LineCode=CND_907_1F Length=344.81 Units=m
New Line.245860496 Bus1=node_435564850.2 Bus2=node_435729416.2 LineCode=CND_902_1F Length=46.09 Units=m
New Line.245859509 Bus1=node_435415304.2 Bus2=node_435415305.2 LineCode=CND_907_1F Length=217.78 Units=m
New Line.245546781 Bus1=node_433997632.1 Bus2=node_433997633.1 LineCode=CND_907_1F Length=150.70 Units=m
New Line.246022212 Bus1=node_436233145.1.2.3 Bus2=node_436233146.1.2.3 LineCode=CND_11_3F Length=121.89 Units=m
New Line.245861262 Bus1=node_435733253.2 Bus2=node_427356051.2 LineCode=CND_907_1F Length=105.53 Units=m
New Line.247136747 Bus1=node_442265520.1.2.3 Bus2=node_433831187.1.2.3 LineCode=CND_13_3F Length=83.60 Units=m
New Line.244168909 Bus1=node_427352518.3 Bus2=node_427352519.3 LineCode=CND_907_1F Length=71.18 Units=m
New Line.245861146 Bus1=node_427354567.3 Bus2=node_435729530.3 LineCode=CND_907_1F Length=249.28 Units=m
New Line.245860208 Bus1=node_435564784.1 Bus2=node_435564800.1 LineCode=CND_907_1F Length=101.92 Units=m
New Line.243587545 Bus1=node_424131412.1.2.3 Bus2=node_424131771.1.2.3 LineCode=CND_4_3F Length=32.97 Units=m
New Line.243991737 Bus1=node_425179071.2 Bus2=node_426170255.2 LineCode=CND_907_1F Length=117.74 Units=m
New Line.1391335465 Bus1=node_1689876237.1.2.3 Bus2=node_425180486.1.2.3 LineCode=CND_3_3F Length=69.16 Units=m
New Line.245859887 Bus1=node_435415095.2 Bus2=node_435563195.2 LineCode=CND_907_1F Length=151.86 Units=m
New Line.849357498 Bus1=node_436073649.1.2.3 Bus2=node_1118213466.1.2.3 LineCode=CND_19_3F Length=34.24 Units=m
New Line.243588013 Bus1=node_424132221.1.2.3 Bus2=node_424134119.1.2.3 LineCode=CND_50_3F Length=34.52 Units=m
New Line.243588146 Bus1=node_424134787.2 Bus2=node_424134788.2 LineCode=CND_911_1F Length=48.09 Units=m
New Line.245860167 Bus1=node_427354472.1.2.3 Bus2=node_435414094.1.2.3 LineCode=CND_11_3F Length=138.14 Units=m
New Line.246020669 Bus1=node_435907658.1 Bus2=node_435907659.1 LineCode=CND_907_1F Length=85.16 Units=m
New Line.245861384 Bus1=node_435905454.1.2.3 Bus2=node_427355111.1.2.3 LineCode=CND_11_3F Length=146.71 Units=m
New Line.244859112 Bus1=node_430481800.2 Bus2=node_427354022.2 LineCode=CND_926_1F Length=47.43 Units=m
New Line.245546080 Bus1=node_433830947.1.2.3 Bus2=node_424100342.1.2.3 LineCode=CND_11_3F Length=34.47 Units=m
New Line.246023169 Bus1=node_436401106.1.2.3 Bus2=node_436401107.1.2.3 LineCode=CND_11_3F Length=47.97 Units=m
New Line.244857408 Bus1=node_430125187.1.2.3 Bus2=node_430125382.1.2.3 LineCode=CND_20_3F Length=25.78 Units=m
New Line.245544345 Bus1=node_433483030.2 Bus2=node_433483031.2 LineCode=CND_907_1F Length=299.15 Units=m
New Line.245545835 Bus1=node_433829714.3 Bus2=node_433829715.3 LineCode=CND_907_1F Length=77.31 Units=m
New Line.244169036 Bus1=node_427352709.3 Bus2=node_427353154.3 LineCode=CND_907_1F Length=82.96 Units=m
New Line.243692013 Bus1=node_424838888.1.2.3 Bus2=node_424838933.1.2.3 LineCode=CND_20_3F Length=36.43 Units=m
New Line.243587618 Bus1=node_424131756.1.2.3 Bus2=node_424132065.1.2.3 LineCode=CND_4_3F Length=36.61 Units=m
New Line.243587920 Bus1=node_424133649.1.2.3 Bus2=node_424133650.1.2.3 LineCode=CND_50_3F Length=30.89 Units=m
New Line.246022867 Bus1=node_436234896.2 Bus2=node_436399597.2 LineCode=CND_902_1F Length=49.23 Units=m
New Line.244341635 Bus1=node_427533414.2 Bus2=node_427533415.2 LineCode=CND_907_1F Length=117.70 Units=m
New Line.2452337789 Bus1=node_2616218359.1.2.3 Bus2=node_2616218369.1.2.3 LineCode=CND_20_3F Length=44.13 Units=m
New Line.246023660 Bus1=node_436234781.1 Bus2=node_436562440.1 LineCode=CND_907_1F Length=168.18 Units=m
New Line.245859881 Bus1=node_435562946.3 Bus2=node_435563165.3 LineCode=CND_907_1F Length=70.70 Units=m
New Line.887982061 Bus1=node_433675650.2 Bus2=node_1152917642.2 LineCode=CND_907_1F Length=25.08 Units=m
New Line.245544365 Bus1=node_433483130.1.2.3 Bus2=node_426170064.1.2.3 LineCode=CND_11_3F Length=62.29 Units=m
New Line.243692599 Bus1=node_424944942.1.2.3 Bus2=node_424944947.1.2.3 LineCode=CND_78_3F Length=86.94 Units=m
New Line.245546267 Bus1=node_433995054.3 Bus2=node_433995055.3 LineCode=CND_907_1F Length=127.71 Units=m
New Line.245544830 Bus1=node_433673985.2 Bus2=node_433673884.2 LineCode=CND_907_1F Length=128.26 Units=m
New Line.246023767 Bus1=node_436562815.3 Bus2=node_436562979.3 LineCode=CND_907_1F Length=127.60 Units=m
New Line.245859359 Bus1=node_435414465.2 Bus2=node_435414555.2 LineCode=CND_902_1F Length=58.51 Units=m
New Line.1015312117 Bus1=node_1279135588.3 Bus2=node_1279135599.3 LineCode=CND_902_1F Length=62.84 Units=m
New Line.245546999 Bus1=node_425179681.3 Bus2=node_433998677.3 LineCode=CND_907_1F Length=178.81 Units=m
New Line.243587361 Bus1=node_424100780.2 Bus2=node_424100781.2 LineCode=CND_909_1F Length=52.19 Units=m
New Line.243823910 Bus1=node_425326761.2 Bus2=node_425326762.2 LineCode=CND_902_1F Length=31.18 Units=m
New Line.245861152 Bus1=node_435732699.2 Bus2=node_435732700.2 LineCode=CND_907_1F Length=113.11 Units=m
New Line.243823007 Bus1=node_425180496.2 Bus2=node_425180436.2 LineCode=CND_902_1F Length=38.67 Units=m
New Line.244857141 Bus1=node_430124042.1.2.3 Bus2=node_425328167.1.2.3 LineCode=CND_20_3F Length=21.26 Units=m
New Line.243587583 Bus1=node_424131726.1.2.3 Bus2=node_424131961.1.2.3 LineCode=CND_4_3F Length=60.35 Units=m
New Line.243824248 Bus1=node_425328451.1 Bus2=node_425328452.1 LineCode=CND_902_1F Length=81.77 Units=m
New Line.244857179 Bus1=node_430124232.1.2.3 Bus2=node_430124233.1.2.3 LineCode=CND_20_3F Length=36.95 Units=m
New Line.245546091 Bus1=node_2677596740.2 Bus2=node_433831003.2 LineCode=CND_907_1F Length=141.72 Units=m
New Line.243992013 Bus1=node_426360578.1 Bus2=node_426359939.1 LineCode=CND_907_1F Length=102.56 Units=m
New Line.245545831 Bus1=node_433829684.2 Bus2=node_433829695.2 LineCode=CND_902_1F Length=59.91 Units=m
New Line.246020933 Bus1=node_1404928507.1.2.3 Bus2=node_425327776.1.2.3 LineCode=CND_11_3F Length=30.70 Units=m
New Line.243992284 Bus1=node_426169386.1.2.3 Bus2=node_426361942.1.2.3 LineCode=CND_11_3F Length=51.94 Units=m
New Line.245544760 Bus1=node_433674049.2 Bus2=node_433674050.2 LineCode=CND_907_1F Length=104.45 Units=m
New Line.245547420 Bus1=node_433674410.2 Bus2=node_434151118.2 LineCode=CND_907_1F Length=111.32 Units=m
New Line.245860101 Bus1=node_434149573.3 Bus2=node_435564265.3 LineCode=CND_907_1F Length=282.43 Units=m
New Line.244859242 Bus1=node_430671386.1.2.3 Bus2=node_430671396.1.2.3 LineCode=CND_51_3F Length=92.70 Units=m
New Line.245545557 Bus1=node_426361157.2 Bus2=node_425179296.2 LineCode=CND_907_1F Length=128.22 Units=m
New Line.245860312 Bus1=node_427354211.1 Bus2=node_435565320.1 LineCode=CND_907_1F Length=110.68 Units=m
New Line.243991886 Bus1=node_426359939.1 Bus2=node_426359940.1 LineCode=CND_907_1F Length=94.30 Units=m
New Line.245860151 Bus1=node_435564514.2 Bus2=node_435564249.2 LineCode=CND_907_1F Length=76.76 Units=m
New Line.245545439 Bus1=node_433676185.2 Bus2=node_433827735.2 LineCode=CND_907_1F Length=229.38 Units=m
New Line.245545349 Bus1=node_433676255.3 Bus2=node_433827285.3 LineCode=CND_907_1F Length=26.81 Units=m
New Line.243692636 Bus1=node_424945112.1.2.3 Bus2=node_424837323.1.2.3 LineCode=CND_78_3F Length=200.92 Units=m
New Line.243991495 Bus1=node_426169040.2 Bus2=node_426169016.2 LineCode=CND_907_1F Length=46.40 Units=m
New Line.244169206 Bus1=node_427354007.3 Bus2=node_427354002.3 LineCode=CND_907_1F Length=91.08 Units=m
New Line.245544536 Bus1=node_433672924.1.2.3 Bus2=node_433672930.1.2.3 LineCode=CND_11_3F Length=100.76 Units=m
New Line.245861511 Bus1=node_435906229.1 Bus2=node_435906259.1 LineCode=CND_907_1F Length=109.35 Units=m
New Line.1162490427 Bus1=node_1433885450.1.2.3 Bus2=node_1433885461.1.2.3 LineCode=CND_4_3F Length=30.39 Units=m
New Line.245858997 Bus1=node_435412735.2 Bus2=node_435412741.2 LineCode=CND_902_1F Length=45.99 Units=m
New Line.245859903 Bus1=node_433829460.2 Bus2=node_427353797.2 LineCode=CND_907_1F Length=51.94 Units=m
New Line.244169690 Bus1=node_427532484.1.2.3 Bus2=node_425327856.1.2.3 LineCode=CND_11_3F Length=52.77 Units=m
New Line.243824145 Bus1=node_425327882.2 Bus2=node_425327826.2 LineCode=CND_902_1F Length=29.23 Units=m
New Line.244856981 Bus1=node_430123124.1.2.3 Bus2=node_430123198.1.2.3 LineCode=CND_20_3F Length=24.41 Units=m
New Line.1506330955 Bus1=node_1815722327.2 Bus2=node_1815722376.2 LineCode=CND_907_1F Length=419.93 Units=m
New Line.245547106 Bus1=node_434149313.2 Bus2=node_434149548.2 LineCode=CND_907_1F Length=106.10 Units=m
New Line.245860921 Bus1=node_435731544.1.2.3 Bus2=node_435731200.1.2.3 LineCode=CND_11_3F Length=100.72 Units=m
...
